*MODEL INPUT FILE            B    67     1    67   999     0
*FILES              
MODEL          CSYCA048
FILEX          UYUM1801.CSX                                                                                 
FILEA          UYUM1801.CSA                                                                                 
FILET          UYUM1801.CST                                                                                 
SPECIES        CSYCA048.SPE                                                                                 
ECOTYPE        CSYCA048.ECO                                                                                 
CULTIVAR       CSYCA048.CUL                                                                                 
PESTS          CSYCA048.PST ///usr/local/Pest/                                                              
SOILS          SOIL.SOL                                                                                     
WEATHERW       UYUM1704.WTH                                                                                 
OUTPUT         OVERVIEW
*SIMULATION CONTROL 
                   1     1     S 2018208  2150 Cultivars                
                   Y     N     N     N     N     N     N     Y     M
                   M     M     E     R     S     R     R     1     G     S     2     D     0
                   R     N     N     N     R
                   N     Y     Y     1     Y     Y     Y     N     N     N     Y     N     Y
!AUTOMATIC MANAGEM  
                   -99     -99   40.  100.   30.   40.   10.
                 30.   50.  100. GS000 IR001  10.0 1.000
                 30.   50.   25. FE001 GS000
                100.     1   20.
                     0     -99  100.    0.
*EXP.DETAILS        
  1UYUM1801 CS UYT_GXE                                                     
*TREATMENTS         
 67 1 1 0 TMS14F1312P0003          
*CULTIVARS          
   CS UC0086 TMS14F1312P0003 
*FIELDS             
   UYUM1801 UYUM1704   0.0  -99.   -99  -99. 100.0   -99 SL     200. NG04365455
      0.0000000000    0.0000000000     0.000               1.0  100.   1.0 -99.0   -99   -99
*INITIAL CONDITIONS 
               0     0     0  1.00  1.00   0.0     0  0.00  0.00  100.    0.
      5. 0.278   0.0   0.0
     15. 0.292   0.0   0.0
     30. 0.309   0.0   0.0
     45. 0.326   0.0   0.0
     60. 0.326   0.0   0.0
     80. 0.324   0.0   0.0
    100. 0.324   0.0   0.0
    150. 0.311   0.0   0.0
    200. 0.311   0.0   0.0
*PLANTING DETAILS   
   2018208     -99   1.2   1.2     V     R  100.   90.  20.0  450.  -99. -99.0   1.0  25.0
*IRRIGATION         
   1.000    0.    0.    0. GS000 IR001   0.0
*FERTILIZERS        
*RESIDUES           
*CHEMICALS          
*TILLAGE            
*ENVIRONMENT        
*HARVEST            
   2019208 GS000     H     A  100.    0.
*SOIL               
 NG04365455  NGA         SL     200. ISRIC soilgrids + HC27                            
 -99         NG            5.810   7.917 HC_GEN0011                                        
 BK     0.10   6.0  0.50   75.  1.00  1.00 SA001 SA001 SA001 -99  
    5.       0.164 0.278 0.403 1.000 0.510  1.29 2.100  27.2  26.3 -99.0 0.120  5.21-99.00 17.60-99.00
   15.       0.176 0.292 0.407 0.850 0.410  1.31 1.780  29.2  25.4 -99.0 0.090  5.28-99.00 15.40-99.00
   30.       0.192 0.309 0.414 0.700 0.300  1.34 1.350  32.0  24.1 -99.0 0.070  5.38-99.00 15.00-99.00
   45.       0.207 0.326 0.421 0.500 0.220  1.39 0.860  34.6  22.9 -99.0 0.060  5.49-99.00 15.60-99.00
   60.       0.207 0.326 0.421 0.500 0.220  1.39 0.860  34.6  22.9 -99.0 0.060  5.49-99.00 15.60-99.00
   80.       0.206 0.324 0.419 0.380 0.230  1.45 0.510  34.4  22.3 -99.0 0.050  5.63-99.00 15.70-99.00
  100.       0.206 0.324 0.419 0.380 0.230  1.45 0.510  34.4  22.3 -99.0 0.050  5.63-99.00 15.70-99.00
  150.       0.196 0.311 0.414 0.050 0.280  1.50 0.280  32.7  22.1 -99.0 0.050  5.81-99.00 15.70-99.00
  200.       0.196 0.311 0.414 0.050 0.280  1.50 0.280  32.7  22.1 -99.0 0.050  5.81-99.00 15.70-99.00
                    
    5.-99.00 -99.0 -99.0 -99.0 -99.0 -99.0 -99.0 -99.0 -99.0 -99.0-99.00 -99.0 -99.0 -99.0 -99.0 -99.0  -99.
   15.-99.00 -99.0 -99.0 -99.0 -99.0 -99.0 -99.0 -99.0 -99.0 -99.0-99.00 -99.0 -99.0 -99.0 -99.0 -99.0  -99.
   30.-99.00 -99.0 -99.0 -99.0 -99.0 -99.0 -99.0 -99.0 -99.0 -99.0-99.00 -99.0 -99.0 -99.0 -99.0 -99.0  -99.
   45.-99.00 -99.0 -99.0 -99.0 -99.0 -99.0 -99.0 -99.0 -99.0 -99.0-99.00 -99.0 -99.0 -99.0 -99.0 -99.0  -99.
   60.-99.00 -99.0 -99.0 -99.0 -99.0 -99.0 -99.0 -99.0 -99.0 -99.0-99.00 -99.0 -99.0 -99.0 -99.0 -99.0  -99.
   80.-99.00 -99.0 -99.0 -99.0 -99.0 -99.0 -99.0 -99.0 -99.0 -99.0-99.00 -99.0 -99.0 -99.0 -99.0 -99.0  -99.
  100.-99.00 -99.0 -99.0 -99.0 -99.0 -99.0 -99.0 -99.0 -99.0 -99.0-99.00 -99.0 -99.0 -99.0 -99.0 -99.0  -99.
  150.-99.00 -99.0 -99.0 -99.0 -99.0 -99.0 -99.0 -99.0 -99.0 -99.0-99.00 -99.0 -99.0 -99.0 -99.0 -99.0  -99.
  200.-99.00 -99.0 -99.0 -99.0 -99.0 -99.0 -99.0 -99.0 -99.0 -99.0-99.00 -99.0 -99.0 -99.0 -99.0 -99.0  -99.
                    
    5.-99.00-99.00-99.00-99.00
   15.-99.00-99.00-99.00-99.00
   30.-99.00-99.00-99.00-99.00
   45.-99.00-99.00-99.00-99.00
   60.-99.00-99.00-99.00-99.00
   80.-99.00-99.00-99.00-99.00
  100.-99.00-99.00-99.00-99.00
  150.-99.00-99.00-99.00-99.00
  200.-99.00-99.00-99.00-99.00
*CULTIVAR           
