*EXP.DETAILS: UYIB1801CS UYT_GXE

*GENERAL
@PEOPLE
-99
@ADDRESS
-99
@SITE
IBADAN
@ PAREA  PRNO  PLEN  PLDR  PLSP  PLAY HAREA  HRNO  HLEN  HARM.........
    -99   -99   -99   -99   -99   -99   -99   -99   -99   -99

*TREATMENTS                        -------------FACTOR LEVELS------------
@N R O C TNAME.................... CU FL SA IC MP MI MF MR MC MT ME MH SM
 1 1 1 0 IITA-TMS-IBA000070         1  1  0  0  1  0  0  0  0  0  0  1  1
 2 1 1 0 IITA-TMS-IBA30572          2  1  0  0  1  0  0  0  0  0  0  1  1
 3 1 1 0 IITA-TMS-IBA980581         3  1  0  0  1  0  0  0  0  0  0  1  1
 4 1 1 0 IITA-TMS-IBA982101         4  1  0  0  1  0  0  0  0  0  0  1  1
 5 1 1 0 TMEB419                    5  1  0  0  1  0  0  0  0  0  0  1  1
 6 1 1 0 TMS13F1021P0008            6  1  0  0  1  0  0  0  0  0  0  1  1
 7 1 1 0 TMS13F1049P0001            7  1  0  0  1  0  0  0  0  0  0  1  1
 8 1 1 0 TMS13F1114P0001            8  1  0  0  1  0  0  0  0  0  0  1  1
 9 1 1 0 TMS13F1182P0002            9  1  0  0  1  0  0  0  0  0  0  1  1
10 1 1 0 TMS13F1304P0003           10  1  0  0  1  0  0  0  0  0  0  1  1
11 1 1 0 TMS13F1315P0008           11  1  0  0  1  0  0  0  0  0  0  1  1
12 1 1 0 TMS13F1376P0018           12  1  0  0  1  0  0  0  0  0  0  1  1
13 1 1 0 TMS13F1400P0001           13  1  0  0  1  0  0  0  0  0  0  1  1
14 1 1 0 TMS13F1461P0002           14  1  0  0  1  0  0  0  0  0  0  1  1
15 1 1 0 TMS13F2061P0005           15  1  0  0  1  0  0  0  0  0  0  1  1
16 1 1 0 TMS13F2207P0001           16  1  0  0  1  0  0  0  0  0  0  1  1
17 1 1 0 TMS14F1001P0004           17  1  0  0  1  0  0  0  0  0  0  1  1
18 1 1 0 TMS14F1013P0007           18  1  0  0  1  0  0  0  0  0  0  1  1
19 1 1 0 TMS14F1016P0006           19  1  0  0  1  0  0  0  0  0  0  1  1
20 1 1 0 TMS14F1019P0015           20  1  0  0  1  0  0  0  0  0  0  1  1
21 1 1 0 TMS14F1022P0003           21  1  0  0  1  0  0  0  0  0  0  1  1
22 1 1 0 TMS14F1022P0006           22  1  0  0  1  0  0  0  0  0  0  1  1
23 1 1 0 TMS14F1035P0004           23  1  0  0  1  0  0  0  0  0  0  1  1
24 1 1 0 TMS14F1035P0007           24  1  0  0  1  0  0  0  0  0  0  1  1
25 1 1 0 TMS14F1036P0007           25  1  0  0  1  0  0  0  0  0  0  1  1
26 1 1 0 TMS14F1049P0001           26  1  0  0  1  0  0  0  0  0  0  1  1
27 1 1 0 TMS14F1120P0003           27  1  0  0  1  0  0  0  0  0  0  1  1
28 1 1 0 TMS14F1125P0010           28  1  0  0  1  0  0  0  0  0  0  1  1
29 1 1 0 TMS14F1146P0002           29  1  0  0  1  0  0  0  0  0  0  1  1
30 1 1 0 TMS14F1159P0003           30  1  0  0  1  0  0  0  0  0  0  1  1
31 1 1 0 TMS14F1194P0002           31  1  0  0  1  0  0  0  0  0  0  1  1
32 1 1 0 TMS14F1195P0004           32  1  0  0  1  0  0  0  0  0  0  1  1
33 1 1 0 TMS14F1195P0005           33  1  0  0  1  0  0  0  0  0  0  1  1
34 1 1 0 TMS14F1223P0007           34  1  0  0  1  0  0  0  0  0  0  1  1
35 1 1 0 TMS14F1262P0002           35  1  0  0  1  0  0  0  0  0  0  1  1
36 1 1 0 TMS14F1278P0003           36  1  0  0  1  0  0  0  0  0  0  1  1
37 1 1 0 TMS14F1285P0017           37  1  0  0  1  0  0  0  0  0  0  1  1
38 1 1 0 TMS14F1287P0008           38  1  0  0  1  0  0  0  0  0  0  1  1
39 1 1 0 TMS14F1288P0008           39  1  0  0  1  0  0  0  0  0  0  1  1
40 1 1 0 TMS14F1291P0003           40  1  0  0  1  0  0  0  0  0  0  1  1
41 1 1 0 TMS14F1291P0011           41  1  0  0  1  0  0  0  0  0  0  1  1
42 1 1 0 TMS14F1291P0012           42  1  0  0  1  0  0  0  0  0  0  1  1
43 1 1 0 TMS14F1295P0012           43  1  0  0  1  0  0  0  0  0  0  1  1
44 1 1 0 TMS14F1297P0019           44  1  0  0  1  0  0  0  0  0  0  1  1
45 1 1 0 TMS14F1299P0007           45  1  0  0  1  0  0  0  0  0  0  1  1
46 1 1 0 TMS14F1300P0002           46  1  0  0  1  0  0  0  0  0  0  1  1
47 1 1 0 TMS14F1300P0008           47  1  0  0  1  0  0  0  0  0  0  1  1
48 1 1 0 TMS14F1301P0004           48  1  0  0  1  0  0  0  0  0  0  1  1
49 1 1 0 TMS14F1301P0013           49  1  0  0  1  0  0  0  0  0  0  1  1
50 1 1 0 TMS14F1303P0012           50  1  0  0  1  0  0  0  0  0  0  1  1
51 1 1 0 TMS14F1306P0008           51  1  0  0  1  0  0  0  0  0  0  1  1
52 1 1 0 TMS14F1306P0015           52  1  0  0  1  0  0  0  0  0  0  1  1
53 1 1 0 TMS14F1306P0020           53  1  0  0  1  0  0  0  0  0  0  1  1
54 1 1 0 TMS14F1310P0004           54  1  0  0  1  0  0  0  0  0  0  1  1
55 1 1 0 TMS14F1310P0015           55  1  0  0  1  0  0  0  0  0  0  1  1
56 1 1 0 TMS14F1311P0002           56  1  0  0  1  0  0  0  0  0  0  1  1
57 1 1 0 TMS14F1312P0003           57  1  0  0  1  0  0  0  0  0  0  1  1

*CULTIVARS
@C CR INGENO CNAME
 1 CS UC0020 IITA-TMS-IBA000070
 2 CS UC0021 IITA-TMS-IBA30572
 3 CS UC0022 IITA-TMS-IBA980581
 4 CS UC0023 IITA-TMS-IBA982101
 5 CS UC0024 TMEB419
 6 CS UC0025 TMS13F1021P0008
 7 CS UC0026 TMS13F1049P0001
 8 CS UC0027 TMS13F1114P0001
 9 CS UC0029 TMS13F1182P0002
10 CS UC0030 TMS13F1304P0003
11 CS UC0031 TMS13F1315P0008
12 CS UC0032 TMS13F1376P0018
13 CS UC0033 TMS13F1400P0001
14 CS UC0034 TMS13F1461P0002
15 CS UC0035 TMS13F2061P0005
16 CS UC0036 TMS13F2207P0001
17 CS UC0037 TMS14F1001P0004
18 CS UC0038 TMS14F1013P0007
19 CS UC0041 TMS14F1016P0006
20 CS UC0042 TMS14F1019P0015
21 CS UC0043 TMS14F1022P0003
22 CS UC0044 TMS14F1022P0006
23 CS UC0045 TMS14F1035P0004
24 CS UC0046 TMS14F1035P0007
25 CS UC0047 TMS14F1036P0007
26 CS UC0048 TMS14F1049P0001
27 CS UC0050 TMS14F1120P0003
28 CS UC0051 TMS14F1125P0010
29 CS UC0053 TMS14F1146P0002
30 CS UC0054 TMS14F1159P0003
31 CS UC0055 TMS14F1194P0002
32 CS UC0056 TMS14F1195P0004
33 CS UC0057 TMS14F1195P0005
34 CS UC0060 TMS14F1223P0007
35 CS UC0062 TMS14F1262P0002
36 CS UC0063 TMS14F1278P0003
37 CS UC0065 TMS14F1285P0017
38 CS UC0066 TMS14F1287P0008
39 CS UC0067 TMS14F1288P0008
40 CS UC0068 TMS14F1291P0003
41 CS UC0069 TMS14F1291P0011
42 CS UC0070 TMS14F1291P0012
43 CS UC0072 TMS14F1295P0012
44 CS UC0073 TMS14F1297P0019
45 CS UC0074 TMS14F1299P0007
46 CS UC0075 TMS14F1300P0002
47 CS UC0076 TMS14F1300P0008
48 CS UC0077 TMS14F1301P0004
49 CS UC0078 TMS14F1301P0013
50 CS UC0079 TMS14F1303P0012
51 CS UC0080 TMS14F1306P0008
52 CS UC0081 TMS14F1306P0015
53 CS UC0082 TMS14F1306P0020
54 CS UC0083 TMS14F1310P0004
55 CS UC0084 TMS14F1310P0015
56 CS UC0085 TMS14F1311P0002
57 CS UC0086 TMS14F1312P0003

*FIELDS
@L ID_FIELD WSTA....  FLSA  FLOB  FLDT  FLDD  FLDS  FLST SLTX  SLDP  ID_SOIL    FLNAME
 1 UYIB1801 UYIB1704   -99   -99   -99   -99   -99   -99 SL     200  NG04261714 -99
@L ...........XCRD ...........YCRD .....ELEV .............AREA .SLEN .FLWR .SLAS FLHST FHDUR
 1               0               0         0               -99   -99   -99   -99   -99   -99

*SOIL ANALYSIS
@A SADAT  SMHB  SMPX  SMKE  SANAME
 1 18251   -99   -99   -99  -99
@A  SABL  SADM  SAOC  SANI SAPHW SAPHB  SAPX  SAKE  SASC
 1    15   -99   -99   -99   -99   -99   -99   -99   -99

*INITIAL CONDITIONS
@C   PCR ICDAT  ICRT  ICND  ICRN  ICRE  ICWD ICRES ICREN ICREP ICRIP ICRID ICNAME
 1   -99 18251   -99   -99     1     1   -99     0   -99   -99   100    20 -99
@C  ICBL  SH2O  SNH4  SNO3
 1     5  .147    .1    .7
 1    15  .158    .1    .7
 1    30  .174    .1    .7
 1    60   .19    .1    .7
 1   100  .188    .1    .7
 1   200  .176    .1    .7

*PLANTING DETAILS
@P PDATE EDATE  PPOP  PPOE  PLME  PLDS  PLRS  PLRD  PLDP  PLWT  PAGE  PENV  PLPH  SPRL                        PLNAME
 1 18251   -99  1.25   -99     V     R   100    90    20   450   -99   -99     1    25                        Culvars

*IRRIGATION AND WATER MANAGEMENT
@I  EFIR  IDEP  ITHR  IEPT  IOFF  IAME  IAMT IRNAME
 1     1    30    50   100 GS000 IR001    10 -99
@I IDATE  IROP IRVAL
 1 18251   -99   -99

*FERTILIZERS (INORGANIC)
@F FDATE  FMCD  FACD  FDEP  FAMN  FAMP  FAMK  FAMC  FAMO  FOCD FERNAME
 1 18251   -99   -99   -99   -99   -99   -99   -99   -99   -99 -99

*RESIDUES AND ORGANIC FERTILIZER
@R RDATE  RCOD  RAMT  RESN  RESP  RESK  RINP  RDEP  RMET RENAME
 1 18251   -99   -99   -99   -99   -99   -99   -99   -99 -99

*CHEMICAL APPLICATIONS
@C CDATE CHCOD CHAMT  CHME CHDEP   CHT..CHNAME
 1 18251   -99   -99   -99   -99   -99  99

*TILLAGE AND ROTATIONS
@T TDATE TIMPL  TDEP TNAME
 1 18251   -99   -99 -99

*HARVEST DETAILS
@H HDATE  HSTG  HCOM HSIZE   HPC  HBPC HNAME
 1 19251 GS016     H     A   100   -99 Cultivars

*SIMULATION CONTROLS
@N GENERAL     NYERS NREPS START SDATE RSEED SNAME.................... SMODEL
 1 GE              1     1     S 18251  2150 Cultivars                 CSYCA
@N OPTIONS     WATER NITRO SYMBI PHOSP POTAS DISES  CHEM  TILL   CO2
 1 OP              Y     N     N     N     N     N     N     Y     M
@N METHODS     WTHER INCON LIGHT EVAPO INFIL PHOTO HYDRO NSWIT MESOM MESEV MESOL
 1 ME              M     M     E     R     S     R     R     1     G     S     2
@N MANAGEMENT  PLANT IRRIG FERTI RESID HARVS
 1 MA              R     N     N     N     R
@N OUTPUTS     FNAME OVVEW SUMRY FROPT GROUT CAOUT WAOUT NIOUT MIOUT DIOUT VBOSE CHOUT OPOUT FMOPT
 1 OU              N     Y     Y     1     Y     N     Y     N     N     N     Y     N     Y     A

@  AUTOMATIC MANAGEMENT
@N PLANTING    PFRST PLAST PH2OL PH2OU PH2OD PSTMX PSTMN
 1 PL          18251 18251    40   100    30    40    10
@N IRRIGATION  IMDEP ITHRL ITHRU IROFF IMETH IRAMT IREFF
 1 IR             30    50   100 GS000 IR001    10     1
@N NITROGEN    NMDEP NMTHR NAMNT NCODE NAOFF
 1 NI             30    50    25 FE001 GS000
@N RESIDUES    RIPCN RTIME RIDEP
 1 RE            100     1    20
@N HARVEST     HFRST HLAST HPCNP HPCNR
 1 HA              0 19251   100     0



