*EXP.DETAILS: UYUM1801CS UYT_GXE

*GENERAL
@PEOPLE
-99
@ADDRESS
-99
@SITE
UMUDIKE
@ PAREA  PRNO  PLEN  PLDR  PLSP  PLAY HAREA  HRNO  HLEN  HARM.........
    -99   -99   -99   -99   -99   -99   -99   -99   -99   -99

*TREATMENTS                        -------------FACTOR LEVELS------------
@N R O C TNAME.................... CU FL SA IC MP MI MF MR MC MT ME MH SM
 1 1 1 0 IITA-TMS-IBA000070         1  1  0  0  1  0  0  0  0  0  0  1  1
 2 1 1 0 IITA-TMS-IBA30572          2  1  0  0  1  0  0  0  0  0  0  1  1
 3 1 1 0 IITA-TMS-IBA980581         3  1  0  0  1  0  0  0  0  0  0  1  1
 4 1 1 0 IITA-TMS-IBA982101         4  1  0  0  1  0  0  0  0  0  0  1  1
 5 1 1 0 TMEB419                    5  1  0  0  1  0  0  0  0  0  0  1  1
 6 1 1 0 TMS13F1021P0008            6  1  0  0  1  0  0  0  0  0  0  1  1
 7 1 1 0 TMS13F1049P0001            7  1  0  0  1  0  0  0  0  0  0  1  1
 8 1 1 0 TMS13F1114P0001            8  1  0  0  1  0  0  0  0  0  0  1  1
 9 1 1 0 TMS13F1126P0003            9  1  0  0  1  0  0  0  0  0  0  1  1
10 1 1 0 TMS13F1182P0002           10  1  0  0  1  0  0  0  0  0  0  1  1
11 1 1 0 TMS13F1304P0003           11  1  0  0  1  0  0  0  0  0  0  1  1
12 1 1 0 TMS13F1315P0008           12  1  0  0  1  0  0  0  0  0  0  1  1
13 1 1 0 TMS13F1376P0018           13  1  0  0  1  0  0  0  0  0  0  1  1
14 1 1 0 TMS13F1400P0001           14  1  0  0  1  0  0  0  0  0  0  1  1
15 1 1 0 TMS13F1461P0002           15  1  0  0  1  0  0  0  0  0  0  1  1
16 1 1 0 TMS13F2061P0005           16  1  0  0  1  0  0  0  0  0  0  1  1
17 1 1 0 TMS13F2207P0001           17  1  0  0  1  0  0  0  0  0  0  1  1
18 1 1 0 TMS14F1001P0004           18  1  0  0  1  0  0  0  0  0  0  1  1
19 1 1 0 TMS14F1013P0007           19  1  0  0  1  0  0  0  0  0  0  1  1
20 1 1 0 TMS14F1014P0016           20  1  0  0  1  0  0  0  0  0  0  1  1
21 1 1 0 TMS14F1014P0017           21  1  0  0  1  0  0  0  0  0  0  1  1
22 1 1 0 TMS14F1016P0006           22  1  0  0  1  0  0  0  0  0  0  1  1
23 1 1 0 TMS14F1019P0015           23  1  0  0  1  0  0  0  0  0  0  1  1
24 1 1 0 TMS14F1022P0003           24  1  0  0  1  0  0  0  0  0  0  1  1
25 1 1 0 TMS14F1022P0006           25  1  0  0  1  0  0  0  0  0  0  1  1
26 1 1 0 TMS14F1035P0004           26  1  0  0  1  0  0  0  0  0  0  1  1
27 1 1 0 TMS14F1035P0007           27  1  0  0  1  0  0  0  0  0  0  1  1
28 1 1 0 TMS14F1036P0007           28  1  0  0  1  0  0  0  0  0  0  1  1
29 1 1 0 TMS14F1049P0001           29  1  0  0  1  0  0  0  0  0  0  1  1
30 1 1 0 TMS14F1098P0013           30  1  0  0  1  0  0  0  0  0  0  1  1
31 1 1 0 TMS14F1120P0003           31  1  0  0  1  0  0  0  0  0  0  1  1
32 1 1 0 TMS14F1125P0010           32  1  0  0  1  0  0  0  0  0  0  1  1
33 1 1 0 TMS14F1131P0001           33  1  0  0  1  0  0  0  0  0  0  1  1
34 1 1 0 TMS14F1146P0002           34  1  0  0  1  0  0  0  0  0  0  1  1
35 1 1 0 TMS14F1159P0003           35  1  0  0  1  0  0  0  0  0  0  1  1
36 1 1 0 TMS14F1194P0002           36  1  0  0  1  0  0  0  0  0  0  1  1
37 1 1 0 TMS14F1195P0004           37  1  0  0  1  0  0  0  0  0  0  1  1
38 1 1 0 TMS14F1195P0005           38  1  0  0  1  0  0  0  0  0  0  1  1
39 1 1 0 TMS14F1196P0003           39  1  0  0  1  0  0  0  0  0  0  1  1
40 1 1 0 TMS14F1208P0007           40  1  0  0  1  0  0  0  0  0  0  1  1
41 1 1 0 TMS14F1223P0007           41  1  0  0  1  0  0  0  0  0  0  1  1
42 1 1 0 TMS14F1224P0004           42  1  0  0  1  0  0  0  0  0  0  1  1
43 1 1 0 TMS14F1262P0002           43  1  0  0  1  0  0  0  0  0  0  1  1
44 1 1 0 TMS14F1278P0003           44  1  0  0  1  0  0  0  0  0  0  1  1
45 1 1 0 TMS14F1285P0006           45  1  0  0  1  0  0  0  0  0  0  1  1
46 1 1 0 TMS14F1285P0017           46  1  0  0  1  0  0  0  0  0  0  1  1
47 1 1 0 TMS14F1287P0008           47  1  0  0  1  0  0  0  0  0  0  1  1
48 1 1 0 TMS14F1288P0008           48  1  0  0  1  0  0  0  0  0  0  1  1
49 1 1 0 TMS14F1291P0003           49  1  0  0  1  0  0  0  0  0  0  1  1
50 1 1 0 TMS14F1291P0011           50  1  0  0  1  0  0  0  0  0  0  1  1
51 1 1 0 TMS14F1291P0012           51  1  0  0  1  0  0  0  0  0  0  1  1
52 1 1 0 TMS14F1292P0012           52  1  0  0  1  0  0  0  0  0  0  1  1
53 1 1 0 TMS14F1295P0012           53  1  0  0  1  0  0  0  0  0  0  1  1
54 1 1 0 TMS14F1297P0019           54  1  0  0  1  0  0  0  0  0  0  1  1
55 1 1 0 TMS14F1299P0007           55  1  0  0  1  0  0  0  0  0  0  1  1
56 1 1 0 TMS14F1300P0002           56  1  0  0  1  0  0  0  0  0  0  1  1
57 1 1 0 TMS14F1300P0008           57  1  0  0  1  0  0  0  0  0  0  1  1
58 1 1 0 TMS14F1301P0004           58  1  0  0  1  0  0  0  0  0  0  1  1
59 1 1 0 TMS14F1301P0013           59  1  0  0  1  0  0  0  0  0  0  1  1
60 1 1 0 TMS14F1303P0012           60  1  0  0  1  0  0  0  0  0  0  1  1
61 1 1 0 TMS14F1306P0008           61  1  0  0  1  0  0  0  0  0  0  1  1
62 1 1 0 TMS14F1306P0015           62  1  0  0  1  0  0  0  0  0  0  1  1
63 1 1 0 TMS14F1306P0020           63  1  0  0  1  0  0  0  0  0  0  1  1
64 1 1 0 TMS14F1310P0004           64  1  0  0  1  0  0  0  0  0  0  1  1
65 1 1 0 TMS14F1310P0015           65  1  0  0  1  0  0  0  0  0  0  1  1
66 1 1 0 TMS14F1311P0002           66  1  0  0  1  0  0  0  0  0  0  1  1
67 1 1 0 TMS14F1312P0003           67  1  0  0  1  0  0  0  0  0  0  1  1

*CULTIVARS
@C CR INGENO CNAME
 1 CS UC0020 IITA-TMS-IBA000070
 2 CS UC0021 IITA-TMS-IBA30572
 3 CS UC0022 IITA-TMS-IBA980581
 4 CS UC0023 IITA-TMS-IBA982101
 5 CS UC0024 TMEB419
 6 CS UC0025 TMS13F1021P0008
 7 CS UC0026 TMS13F1049P0001
 8 CS UC0027 TMS13F1114P0001
 9 CS UC0028 TMS13F1126P0003
10 CS UC0029 TMS13F1182P0002
11 CS UC0030 TMS13F1304P0003
12 CS UC0031 TMS13F1315P0008
13 CS UC0032 TMS13F1376P0018
14 CS UC0033 TMS13F1400P0001
15 CS UC0034 TMS13F1461P0002
16 CS UC0035 TMS13F2061P0005
17 CS UC0036 TMS13F2207P0001
18 CS UC0037 TMS14F1001P0004
19 CS UC0038 TMS14F1013P0007
20 CS UC0039 TMS14F1014P0016
21 CS UC0040 TMS14F1014P0017
22 CS UC0041 TMS14F1016P0006
23 CS UC0042 TMS14F1019P0015
24 CS UC0043 TMS14F1022P0003
25 CS UC0044 TMS14F1022P0006
26 CS UC0045 TMS14F1035P0004
27 CS UC0046 TMS14F1035P0007
28 CS UC0047 TMS14F1036P0007
29 CS UC0048 TMS14F1049P0001
30 CS UC0049 TMS14F1098P0013
31 CS UC0050 TMS14F1120P0003
32 CS UC0051 TMS14F1125P0010
33 CS UC0052 TMS14F1131P0001
34 CS UC0053 TMS14F1146P0002
35 CS UC0054 TMS14F1159P0003
36 CS UC0055 TMS14F1194P0002
37 CS UC0056 TMS14F1195P0004
38 CS UC0057 TMS14F1195P0005
39 CS UC0058 TMS14F1196P0003
40 CS UC0059 TMS14F1208P0007
41 CS UC0060 TMS14F1223P0007
42 CS UC0061 TMS14F1224P0004
43 CS UC0062 TMS14F1262P0002
44 CS UC0063 TMS14F1278P0003
45 CS UC0064 TMS14F1285P0006
46 CS UC0065 TMS14F1285P0017
47 CS UC0066 TMS14F1287P0008
48 CS UC0067 TMS14F1288P0008
49 CS UC0068 TMS14F1291P0003
50 CS UC0069 TMS14F1291P0011
51 CS UC0070 TMS14F1291P0012
52 CS UC0071 TMS14F1292P0012
53 CS UC0072 TMS14F1295P0012
54 CS UC0073 TMS14F1297P0019
55 CS UC0074 TMS14F1299P0007
56 CS UC0075 TMS14F1300P0002
57 CS UC0076 TMS14F1300P0008
58 CS UC0077 TMS14F1301P0004
59 CS UC0078 TMS14F1301P0013
60 CS UC0079 TMS14F1303P0012
61 CS UC0080 TMS14F1306P0008
62 CS UC0081 TMS14F1306P0015
63 CS UC0082 TMS14F1306P0020
64 CS UC0083 TMS14F1310P0004
65 CS UC0084 TMS14F1310P0015
66 CS UC0085 TMS14F1311P0002
67 CS UC0086 TMS14F1312P0003

*FIELDS
@L ID_FIELD WSTA....  FLSA  FLOB  FLDT  FLDD  FLDS  FLST SLTX  SLDP  ID_SOIL    FLNAME
 1 UYUM1801 UYUM1704   -99   -99   -99   -99   -99   -99 SL     200  NG04365455 -99
@L ...........XCRD ...........YCRD .....ELEV .............AREA .SLEN .FLWR .SLAS FLHST FHDUR
 1               0               0         0               -99   -99   -99   -99   -99   -99

*SOIL ANALYSIS
@A SADAT  SMHB  SMPX  SMKE  SANAME
 1 18208   -99   -99   -99  -99
@A  SABL  SADM  SAOC  SANI SAPHW SAPHB  SAPX  SAKE  SASC
 1    15   -99   -99   -99   -99   -99   -99   -99   -99

*INITIAL CONDITIONS
@C   PCR ICDAT  ICRT  ICND  ICRN  ICRE  ICWD ICRES ICREN ICREP ICRIP ICRID ICNAME
 1   -99 18208   -99   -99     1     1   -99     0   -99   -99   100    20 -99
@C  ICBL  SH2O  SNH4  SNO3
 1     5  .221    .1    .6
 1    15  .234    .1    .6
 1    30   .25    .1    .6
 1    60  .267    .1    .6
 1   100  .265    .1    .6
 1   200  .253    .1    .6

*PLANTING DETAILS
@P PDATE EDATE  PPOP  PPOE  PLME  PLDS  PLRS  PLRD  PLDP  PLWT  PAGE  PENV  PLPH  SPRL                        PLNAME
 1 18208   -99  1.25   -99     V     R   100    90    20   450   -99   -99     1    25                        Culvars

*IRRIGATION AND WATER MANAGEMENT
@I  EFIR  IDEP  ITHR  IEPT  IOFF  IAME  IAMT IRNAME
 1     1    30    50   100 GS000 IR001    10 -99
@I IDATE  IROP IRVAL
 1 18208   -99   -99

*FERTILIZERS (INORGANIC)
@F FDATE  FMCD  FACD  FDEP  FAMN  FAMP  FAMK  FAMC  FAMO  FOCD FERNAME
 1 18208   -99   -99   -99   -99   -99   -99   -99   -99   -99 -99

*RESIDUES AND ORGANIC FERTILIZER
@R RDATE  RCOD  RAMT  RESN  RESP  RESK  RINP  RDEP  RMET RENAME
 1 18208   -99   -99   -99   -99   -99   -99   -99   -99 -99

*CHEMICAL APPLICATIONS
@C CDATE CHCOD CHAMT  CHME CHDEP   CHT..CHNAME
 1 18208   -99   -99   -99   -99   -99  99

*TILLAGE AND ROTATIONS
@T TDATE TIMPL  TDEP TNAME
 1 18208   -99   -99 -99

*ENVIRONMENT MODIFICATIONS
@E ODATE EDAY  ERAD  EMAX  EMIN  ERAIN ECO2  EDEW  EWIND ENVNAME  
 1 18208 A   0 A   0 A   0 A   0 A 0.0 A   0 A   0 A   0 Radiation solar

*HARVEST DETAILS
@H HDATE  HSTG  HCOM HSIZE   HPC  HBPC HNAME
 1 19208 GS000     H     A   100   -99 Cultivars

*SIMULATION CONTROLS
@N GENERAL     NYERS NREPS START SDATE RSEED SNAME.................... SMODEL
 1 GE              1     1     S 18208  2150 Cultivars                 CSYCA
@N OPTIONS     WATER NITRO SYMBI PHOSP POTAS DISES  CHEM  TILL   CO2
 1 OP              Y     N     N     N     N     N     N     Y     M
@N METHODS     WTHER INCON LIGHT EVAPO INFIL PHOTO HYDRO NSWIT MESOM MESEV MESOL
 1 ME              M     M     E     R     S     R     R     1     G     S     2
@N MANAGEMENT  PLANT IRRIG FERTI RESID HARVS
 1 MA              R     N     N     N     R
@N OUTPUTS     FNAME OVVEW SUMRY FROPT GROUT CAOUT WAOUT NIOUT MIOUT DIOUT VBOSE CHOUT OPOUT FMOPT
 1 OU              N     Y     Y     1     Y     Y     Y     N     N     N     Y     N     Y     A

@  AUTOMATIC MANAGEMENT
@N PLANTING    PFRST PLAST PH2OL PH2OU PH2OD PSTMX PSTMN
 1 PL          18208 18208    40   100    30    40    10
@N IRRIGATION  IMDEP ITHRL ITHRU IROFF IMETH IRAMT IREFF
 1 IR             30    50   100 GS000 IR001    10     1
@N NITROGEN    NMDEP NMTHR NAMNT NCODE NAOFF
 1 NI             30    50    25 FE001 GS000
@N RESIDUES    RIPCN RTIME RIDEP
 1 RE            100     1    20
@N HARVEST     HFRST HLAST HPCNP HPCNR
 1 HA              0 19208   100     0



