*EXP.DETAILS: UYAG1701CS UYT_GXE

*GENERAL
@PEOPLE
-99
@ADDRESS
-99
@SITE
AGO-OWU

*TREATMENTS                        -------------FACTOR LEVELS------------
@N R O C TNAME.................... CU FL SA IC MP MI MF MR MC MT ME MH SM
 1 1 1 0 IITA-TMS-IBA000070         1  1  0  0  1  0  0  0  0  0  0  1  1
 2 1 1 0 IITA-TMS-IBA30572          2  1  0  0  1  0  0  0  0  0  0  1  1
 3 1 1 0 IITA-TMS-IBA980581         3  1  0  0  1  0  0  0  0  0  0  1  1
 4 1 1 0 IITA-TMS-IBA982101         4  1  0  0  1  0  0  0  0  0  0  1  1
 5 1 1 0 TMEB419                    5  1  0  0  1  0  0  0  0  0  0  1  1
 6 1 1 0 TMS13F1021P0008            6  1  0  0  1  0  0  0  0  0  0  1  1
 7 1 1 0 TMS13F1114P0001            7  1  0  0  1  0  0  0  0  0  0  1  1
 8 1 1 0 TMS13F1182P0002            8  1  0  0  1  0  0  0  0  0  0  1  1
 9 1 1 0 TMS13F1461P0002            9  1  0  0  1  0  0  0  0  0  0  1  1
10 1 1 0 TMS13F2061P0005           10  1  0  0  1  0  0  0  0  0  0  1  1
11 1 1 0 TMS13F2207P0001           11  1  0  0  1  0  0  0  0  0  0  1  1
12 1 1 0 TMS14F1001P0004           12  1  0  0  1  0  0  0  0  0  0  1  1
13 1 1 0 TMS14F1016P0006           13  1  0  0  1  0  0  0  0  0  0  1  1
14 1 1 0 TMS14F1022P0006           14  1  0  0  1  0  0  0  0  0  0  1  1
15 1 1 0 TMS14F1035P0004           15  1  0  0  1  0  0  0  0  0  0  1  1
16 1 1 0 TMS14F1035P0007           16  1  0  0  1  0  0  0  0  0  0  1  1
17 1 1 0 TMS14F1036P0007           17  1  0  0  1  0  0  0  0  0  0  1  1
18 1 1 0 TMS14F1049P0001           18  1  0  0  1  0  0  0  0  0  0  1  1
19 1 1 0 TMS14F1120P0003           19  1  0  0  1  0  0  0  0  0  0  1  1
20 1 1 0 TMS14F1131P0001           20  1  0  0  1  0  0  0  0  0  0  1  1
21 1 1 0 TMS14F1194P0002           21  1  0  0  1  0  0  0  0  0  0  1  1
22 1 1 0 TMS14F1195P0005           22  1  0  0  1  0  0  0  0  0  0  1  1
23 1 1 0 TMS14F1208P0007           23  1  0  0  1  0  0  0  0  0  0  1  1
24 1 1 0 TMS14F1223P0007           24  1  0  0  1  0  0  0  0  0  0  1  1
25 1 1 0 TMS14F1224P0004           25  1  0  0  1  0  0  0  0  0  0  1  1
26 1 1 0 TMS14F1262P0002           26  1  0  0  1  0  0  0  0  0  0  1  1
27 1 1 0 TMS14F1285P0017           27  1  0  0  1  0  0  0  0  0  0  1  1
28 1 1 0 TMS14F1291P0011           28  1  0  0  1  0  0  0  0  0  0  1  1
29 1 1 0 TMS14F1297P0019           29  1  0  0  1  0  0  0  0  0  0  1  1
30 1 1 0 TMS14F1300P0008           30  1  0  0  1  0  0  0  0  0  0  1  1
31 1 1 0 TMS14F1303P0012           31  1  0  0  1  0  0  0  0  0  0  1  1
32 1 1 0 TMS14F1306P0015           32  1  0  0  1  0  0  0  0  0  0  1  1
33 1 1 0 TMS14F1306P0020           33  1  0  0  1  0  0  0  0  0  0  1  1
34 1 1 0 TMS14F1310P0004           34  1  0  0  1  0  0  0  0  0  0  1  1
35 1 1 0 TMS14F1311P0002           35  1  0  0  1  0  0  0  0  0  0  1  1
36 1 1 0 TMS14F1312P0003           36  1  0  0  1  0  0  0  0  0  0  1  1

*CULTIVARS
@C CR INGENO CNAME
 1 CS UC0020 IITA-TMS-IBA000070
 2 CS UC0021 IITA-TMS-IBA30572
 3 CS UC0022 IITA-TMS-IBA980581
 4 CS UC0023 IITA-TMS-IBA982101
 5 CS UC0024 TMEB419
 6 CS UC0025 TMS13F1021P0008
 7 CS UC0027 TMS13F1114P0001
 8 CS UC0029 TMS13F1182P0002
 9 CS UC0034 TMS13F1461P0002
10 CS UC0035 TMS13F2061P0005
11 CS UC0036 TMS13F2207P0001
12 CS UC0037 TMS14F1001P0004
13 CS UC0041 TMS14F1016P0006
14 CS UC0044 TMS14F1022P0006
15 CS UC0045 TMS14F1035P0004
16 CS UC0046 TMS14F1035P0007
17 CS UC0047 TMS14F1036P0007
18 CS UC0048 TMS14F1049P0001
19 CS UC0050 TMS14F1120P0003
20 CS UC0052 TMS14F1131P0001
21 CS UC0055 TMS14F1194P0002
22 CS UC0057 TMS14F1195P0005
23 CS UC0059 TMS14F1208P0007
24 CS UC0060 TMS14F1223P0007
25 CS UC0061 TMS14F1224P0004
26 CS UC0062 TMS14F1262P0002
27 CS UC0065 TMS14F1285P0017
28 CS UC0069 TMS14F1291P0011
29 CS UC0073 TMS14F1297P0019
30 CS UC0076 TMS14F1300P0008
31 CS UC0079 TMS14F1303P0012
32 CS UC0081 TMS14F1306P0015
33 CS UC0082 TMS14F1306P0020
34 CS UC0083 TMS14F1310P0004
35 CS UC0085 TMS14F1311P0002
36 CS UC0086 TMS14F1312P0003

*FIELDS
@L ID_FIELD WSTA....  FLSA  FLOB  FLDT  FLDD  FLDS  FLST SLTX  SLDP  ID_SOIL    FLNAME
 1 UYAG1701 UYAB1704   -99   -99   -99   -99   -99   -99 SL     200  NG04184010 -99
@L ...........XCRD ...........YCRD .....ELEV .............AREA .SLEN .FLWR .SLAS FLHST FHDUR
 1               0               0         0               -99   -99   -99   -99   -99   -99

*SOIL ANALYSIS
@A SADAT  SMHB  SMPX  SMKE  SANAME
 1 19169   -99   -99   -99  -99
@A  SABL  SADM  SAOC  SANI SAPHW SAPHB  SAPX  SAKE  SASC
 1    15   -99   -99   -99   -99   -99   -99   -99   -99

*INITIAL CONDITIONS
@C   PCR ICDAT  ICRT  ICND  ICRN  ICRE  ICWD ICRES ICREN ICREP ICRIP ICRID ICNAME
 1   -99 19169   -99   -99     1     1   -99     0   -99   -99   100    50 -99
@C  ICBL  SH2O  SNH4  SNO3
 1     5   .33   -99   -99
 1     5   .34   -99   -99
 1    15   .33   -99   -99
 1    30   .32   -99   -99
 1    45   .32   -99   -99
 1    90   .31   -99   -99
 1   150   .33   -99   -99
 1   190   .33   -99   -99
 1   250   .32   -99   -99
 1   250   .32   -99   -99
 1   250  .242   -99   -99
 1   250  .177   -99   -99
 1   250  .193   -99   -99
 1   250  .243   -99   -99

*PLANTING DETAILS
@P PDATE EDATE  PPOP  PPOE  PLME  PLDS  PLRS  PLRD  PLDP  PLWT  PAGE  PENV  PLPH  SPRL                        PLNAME
 1 19169   -99     1     1     V     R   100    90    20   450   -99   -99     1    25                        Culvars

*IRRIGATION AND WATER MANAGEMENT
@I  EFIR  IDEP  ITHR  IEPT  IOFF  IAME  IAMT IRNAME
 1     1    30    50   100 GS000 IR001    10 -99
@I IDATE  IROP IRVAL
 1 19169   -99   -99

*FERTILIZERS (INORGANIC)
@F FDATE  FMCD  FACD  FDEP  FAMN  FAMP  FAMK  FAMC  FAMO  FOCD FERNAME
 1 19169   -99   -99   -99   -99   -99   -99   -99   -99   -99 -99

*RESIDUES AND ORGANIC FERTILIZER
@R RDATE  RCOD  RAMT  RESN  RESP  RESK  RINP  RDEP  RMET RENAME
 1 19169   -99   -99   -99   -99   -99   -99   -99   -99 -99

*CHEMICAL APPLICATIONS
@C CDATE CHCOD CHAMT  CHME CHDEP   CHT..CHNAME
 1 19169   -99   -99   -99   -99   -99  99

*TILLAGE AND ROTATIONS
@T TDATE TIMPL  TDEP TNAME
 1 19169   -99   -99 -99

*ENVIRONMENT MODIFICATIONS
@E ODATE EDAY  ERAD  EMAX  EMIN  ERAIN ECO2  EDEW  EWIND ENVNAME  
 1 19169 A   0 A   0 A   0 A   0 A 0.0 A   0 A   0 A   0 Radiation solar

*HARVEST DETAILS
@H HDATE  HSTG  HCOM HSIZE   HPC  HBPC HNAME
 1 20209 GS016     H     A   100   -99 Cultivars

*SIMULATION CONTROLS
@N GENERAL     NYERS NREPS START SDATE RSEED SNAME.................... SMODEL
 1 GE              1     1     S 19169  2150 Cultivars                 CSYCA
@N OPTIONS     WATER NITRO SYMBI PHOSP POTAS DISES  CHEM  TILL   CO2
 1 OP              Y     N     N     N     N     N     N     Y     M
@N METHODS     WTHER INCON LIGHT EVAPO INFIL PHOTO HYDRO NSWIT MESOM MESEV MESOL
 1 ME              M     M     E     R     S     R     R     1     G     S     2
@N MANAGEMENT  PLANT IRRIG FERTI RESID HARVS
 1 MA              R     A     N     N     R
@N OUTPUTS     FNAME OVVEW SUMRY FROPT GROUT CAOUT WAOUT NIOUT MIOUT DIOUT VBOSE CHOUT OPOUT FMOPT
 1 OU              N     Y     Y     1     Y     Y     Y     Y     Y     N     Y     N     Y     A

@  AUTOMATIC MANAGEMENT
@N PLANTING    PFRST PLAST PH2OL PH2OU PH2OD PSTMX PSTMN
 1 PL          19169 19169    40   100    30    40    10
@N IRRIGATION  IMDEP ITHRL ITHRU IROFF IMETH IRAMT IREFF
 1 IR             30    50   100 GS000 IR001    10     1
@N NITROGEN    NMDEP NMTHR NAMNT NCODE NAOFF
 1 NI             30    50    25 FE001 GS000
@N RESIDUES    RIPCN RTIME RIDEP
 1 RE            100     1    20
@N HARVEST     HFRST HLAST HPCNP HPCNR
 1 HA              0 20209   100     0



