*EXP.DETAILS: UYAG1801CS UYT_GXE

*GENERAL
@PEOPLE
-99
@ADDRESS
-99
@SITE
AGO-OWU
@ PAREA  PRNO  PLEN  PLDR  PLSP  PLAY HAREA  HRNO  HLEN  HARM.........
    -99   -99   -99   -99   -99   -99   -99   -99   -99   -99

*TREATMENTS                        -------------FACTOR LEVELS------------
@N R O C TNAME.................... CU FL SA IC MP MI MF MR MC MT ME MH SM
 1 1 1 0 IITA-TMS-IBA000070         1  1  0  0  1  0  0  0  0  0  0  1  1
 2 1 1 0 IITA-TMS-IBA30572          2  1  0  0  1  0  0  0  0  0  0  1  1
 3 1 1 0 IITA-TMS-IBA980581         3  1  0  0  1  0  0  0  0  0  0  1  1
 4 1 1 0 IITA-TMS-IBA982101         4  1  0  0  1  0  0  0  0  0  0  1  1
 5 1 1 0 TMEB419                    5  1  0  0  1  0  0  0  0  0  0  1  1
 6 1 1 0 TMS13F1049P0001            6  1  0  0  1  0  0  0  0  0  0  1  1
 7 1 1 0 TMS13F1126P0003            7  1  0  0  1  0  0  0  0  0  0  1  1
 8 1 1 0 TMS13F1304P0003            8  1  0  0  1  0  0  0  0  0  0  1  1
 9 1 1 0 TMS13F1315P0008            9  1  0  0  1  0  0  0  0  0  0  1  1
10 1 1 0 TMS13F1376P0018           10  1  0  0  1  0  0  0  0  0  0  1  1
11 1 1 0 TMS13F1400P0001           11  1  0  0  1  0  0  0  0  0  0  1  1
12 1 1 0 TMS14F1013P0007           12  1  0  0  1  0  0  0  0  0  0  1  1
13 1 1 0 TMS14F1014P0016           13  1  0  0  1  0  0  0  0  0  0  1  1
14 1 1 0 TMS14F1014P0017           14  1  0  0  1  0  0  0  0  0  0  1  1
15 1 1 0 TMS14F1019P0015           15  1  0  0  1  0  0  0  0  0  0  1  1
16 1 1 0 TMS14F1022P0003           16  1  0  0  1  0  0  0  0  0  0  1  1
17 1 1 0 TMS14F1098P0013           17  1  0  0  1  0  0  0  0  0  0  1  1
18 1 1 0 TMS14F1125P0010           18  1  0  0  1  0  0  0  0  0  0  1  1
19 1 1 0 TMS14F1146P0002           19  1  0  0  1  0  0  0  0  0  0  1  1
20 1 1 0 TMS14F1159P0003           20  1  0  0  1  0  0  0  0  0  0  1  1
21 1 1 0 TMS14F1195P0004           21  1  0  0  1  0  0  0  0  0  0  1  1
22 1 1 0 TMS14F1196P0003           22  1  0  0  1  0  0  0  0  0  0  1  1
23 1 1 0 TMS14F1278P0003           23  1  0  0  1  0  0  0  0  0  0  1  1
24 1 1 0 TMS14F1285P0006           24  1  0  0  1  0  0  0  0  0  0  1  1
25 1 1 0 TMS14F1287P0008           25  1  0  0  1  0  0  0  0  0  0  1  1
26 1 1 0 TMS14F1288P0008           26  1  0  0  1  0  0  0  0  0  0  1  1
27 1 1 0 TMS14F1291P0003           27  1  0  0  1  0  0  0  0  0  0  1  1
28 1 1 0 TMS14F1291P0012           28  1  0  0  1  0  0  0  0  0  0  1  1
29 1 1 0 TMS14F1292P0012           29  1  0  0  1  0  0  0  0  0  0  1  1
30 1 1 0 TMS14F1295P0012           30  1  0  0  1  0  0  0  0  0  0  1  1
31 1 1 0 TMS14F1299P0007           31  1  0  0  1  0  0  0  0  0  0  1  1
32 1 1 0 TMS14F1300P0002           32  1  0  0  1  0  0  0  0  0  0  1  1
33 1 1 0 TMS14F1301P0004           33  1  0  0  1  0  0  0  0  0  0  1  1
34 1 1 0 TMS14F1301P0013           34  1  0  0  1  0  0  0  0  0  0  1  1
35 1 1 0 TMS14F1306P0008           35  1  0  0  1  0  0  0  0  0  0  1  1
36 1 1 0 TMS14F1310P0015           36  1  0  0  1  0  0  0  0  0  0  1  1

*CULTIVARS
@C CR INGENO CNAME
 1 CS UC0020 IITA-TMS-IBA000070
 2 CS UC0021 IITA-TMS-IBA30572
 3 CS UC0022 IITA-TMS-IBA980581
 4 CS UC0023 IITA-TMS-IBA982101
 5 CS UC0024 TMEB419
 6 CS UC0026 TMS13F1049P0001
 7 CS UC0028 TMS13F1126P0003
 8 CS UC0030 TMS13F1304P0003
 9 CS UC0031 TMS13F1315P0008
10 CS UC0032 TMS13F1376P0018
11 CS UC0033 TMS13F1400P0001
12 CS UC0038 TMS14F1013P0007
13 CS UC0039 TMS14F1014P0016
14 CS UC0040 TMS14F1014P0017
15 CS UC0042 TMS14F1019P0015
16 CS UC0043 TMS14F1022P0003
17 CS UC0049 TMS14F1098P0013
18 CS UC0051 TMS14F1125P0010
19 CS UC0053 TMS14F1146P0002
20 CS UC0054 TMS14F1159P0003
21 CS UC0056 TMS14F1195P0004
22 CS UC0058 TMS14F1196P0003
23 CS UC0063 TMS14F1278P0003
24 CS UC0064 TMS14F1285P0006
25 CS UC0066 TMS14F1287P0008
26 CS UC0067 TMS14F1288P0008
27 CS UC0068 TMS14F1291P0003
28 CS UC0070 TMS14F1291P0012
29 CS UC0071 TMS14F1292P0012
30 CS UC0072 TMS14F1295P0012
31 CS UC0074 TMS14F1299P0007
32 CS UC0075 TMS14F1300P0002
33 CS UC0077 TMS14F1301P0004
34 CS UC0078 TMS14F1301P0013
35 CS UC0080 TMS14F1306P0008
36 CS UC0084 TMS14F1310P0015

*FIELDS
@L ID_FIELD WSTA....  FLSA  FLOB  FLDT  FLDD  FLDS  FLST SLTX  SLDP  ID_SOIL    FLNAME
 1 UYAG1801 UYOW1704   -99   -99   -99   -99   -99   -99 SL     200  NG04283331 -99
@L ...........XCRD ...........YCRD .....ELEV .............AREA .SLEN .FLWR .SLAS FLHST FHDUR
 1               0               0         0               -99   -99   -99   -99   -99   -99

*SOIL ANALYSIS
@A SADAT  SMHB  SMPX  SMKE  SANAME
 1 18172   -99   -99   -99  -99
@A  SABL  SADM  SAOC  SANI SAPHW SAPHB  SAPX  SAKE  SASC
 1    15   -99   -99   -99   -99   -99   -99   -99   -99

*INITIAL CONDITIONS
@C   PCR ICDAT  ICRT  ICND  ICRN  ICRE  ICWD ICRES ICREN ICREP ICRIP ICRID ICNAME
 1   -99 18172   -99   -99     1     1   -99     0   -99   -99   100    20 -99
@C  ICBL  SH2O  SNH4  SNO3
 1     5  .187    .1    .8
 1    15  .199    .1    .8
 1    30  .216    .1    .8
 1    60  .232    .1    .8
 1   100   .23    .1    .8
 1   200  .218    .1    .8

*PLANTING DETAILS
@P PDATE EDATE  PPOP  PPOE  PLME  PLDS  PLRS  PLRD  PLDP  PLWT  PAGE  PENV  PLPH  SPRL                        PLNAME
 1 18052   -99  1.25   -99     V     R   100    90    20   450   -99   -99     1    25                        Culvars

*IRRIGATION AND WATER MANAGEMENT
@I  EFIR  IDEP  ITHR  IEPT  IOFF  IAME  IAMT IRNAME
 1     1    30    50   100   -99   -99    10 -99
@I IDATE  IROP IRVAL
 1 18172   -99   -99

*FERTILIZERS (INORGANIC)
@F FDATE  FMCD  FACD  FDEP  FAMN  FAMP  FAMK  FAMC  FAMO  FOCD FERNAME
 1 18172   -99   -99   -99   -99   -99   -99   -99   -99   -99 -99

*RESIDUES AND ORGANIC FERTILIZER
@R RDATE  RCOD  RAMT  RESN  RESP  RESK  RINP  RDEP  RMET RENAME
 1 18172   -99   -99   -99   -99   -99   -99   -99   -99 -99

*CHEMICAL APPLICATIONS
@C CDATE CHCOD CHAMT  CHME CHDEP   CHT..CHNAME
 1 18172   -99   -99   -99   -99   -99  -99

*TILLAGE AND ROTATIONS
@T TDATE TIMPL  TDEP TNAME
 1 18172   -99   -99 -99

*ENVIRONMENT MODIFICATIONS
@E ODATE EDAY  ERAD  EMAX  EMIN  ERAIN ECO2  EDEW  EWIND ENVNAME  
 1 18172 A 0.0 A 0.0 A   0 A   0 A 0.0 A   0 A   0 A   0 

*HARVEST DETAILS
@H HDATE  HSTG  HCOM HSIZE   HPC  HBPC HNAME
 1 19172 GS016     H     A   100   -99 Cultivars

*SIMULATION CONTROLS
@N GENERAL     NYERS NREPS START SDATE RSEED SNAME.................... SMODEL
 1 GE              1     1     S 18051  2150 Cultivars                 CSYCA
@N OPTIONS     WATER NITRO SYMBI PHOSP POTAS DISES  CHEM  TILL   CO2
 1 OP              Y     N     N     N     N     N     N     Y     M
@N METHODS     WTHER INCON LIGHT EVAPO INFIL PHOTO HYDRO NSWIT MESOM MESEV MESOL
 1 ME              M     M     E     R     S     R     R     1     G     S     2
@N MANAGEMENT  PLANT IRRIG FERTI RESID HARVS
 1 MA              R     N     N     N     R
@N OUTPUTS     FNAME OVVEW SUMRY FROPT GROUT CAOUT WAOUT NIOUT MIOUT DIOUT VBOSE CHOUT OPOUT FMOPT
 1 OU              N     Y     Y     1     Y     N     Y     N     N     N     Y     N     Y     A

@  AUTOMATIC MANAGEMENT
@N PLANTING    PFRST PLAST PH2OL PH2OU PH2OD PSTMX PSTMN
 1 PL          18172 18172    40   100    30    40    10
@N IRRIGATION  IMDEP ITHRL ITHRU IROFF IMETH IRAMT IREFF
 1 IR             30    50   100 GS000 IR001    10     1
@N NITROGEN    NMDEP NMTHR NAMNT NCODE NAOFF
 1 NI             30    50    25 FE001 GS000
@N RESIDUES    RIPCN RTIME RIDEP
 1 RE            100     1    20
@N HARVEST     HFRST HLAST HPCNP HPCNR
 1 HA              0 19172   100     0



