*MODEL INPUT FILE            B     2     1     2   999     0
*FILES              
MODEL          CSYCA048
FILEX          UYAB1901.CSX C:\DSSAT48\CASSAVA\                                                             
FILEA          UYAB1901.CSA C:\DSSAT48\CASSAVA\                                                             
FILET          UYAB1901.CST C:\DSSAT48\CASSAVA\                                                             
SPECIES        CSYCA048.SPE C:\DSSAT48\GENOTYPE\                                                            
ECOTYPE        CSYCA048.ECO C:\DSSAT48\GENOTYPE\                                                            
CULTIVAR       CSYCA048.CUL C:\DSSAT48\GENOTYPE\                                                            
PESTS          CSYCA048.PST C:\DSSAT48\PEST\                                                                
SOILS          SOIL.SOL     C:\DSSAT48\SOIL\                                                                
WEATHERW       UYAB1704.WTH C:\DSSAT48\Weather\                                                             
OUTPUT         OVERVIEW
*SIMULATION CONTROL 
                   1     1     S 2019169  2150 Cultivars                
                   Y     N     N     N     N     N     N     Y     M
                   M     M     E     R     S     R     R     1     G     S     2     D     0
                   R     A     N     N     R
                   N     Y     Y     1     Y     Y     Y     Y     Y     N     Y     N     Y
!AUTOMATIC MANAGEM  
                   -99     -99   40.  100.   30.   40.   10.
                 30.   50.  100. GS000 IR001  10.0 1.000
                 30.   50.   25. FE001 GS000
                100.     1   20.
                     0     -99  100.    0.
*EXP.DETAILS        
  1UYAB1901 CS UYT_GXE                                                     
*TREATMENTS         
  2 1 1 0 IITA-TMS-IBA30572        
*CULTIVARS          
   CS UC0021 IITA-TMS-IBA3057
*FIELDS             
   UYAB1901 UYAB1704   0.0  -99.   -99  -99. 100.0   -99 SL     209. CBAN840001
      0.0000000000    0.0000000000     0.000               1.0  100.   1.0 -99.0   -99   -99
*INITIAL CONDITIONS 
               0     0     0  1.00  1.00   0.0     0  0.00  0.00  100.    0.
      5. 0.330   0.0   0.0
     15. 0.335   0.0   0.0
     20. 0.320   0.0   0.0
     25. 0.320   0.0   0.0
     30. 0.310   0.0   0.0
     35. 0.330   0.0   0.0
     40. 0.330   0.0   0.0
     55. 0.320   0.0   0.0
     70. 0.320   0.0   0.0
     95. 0.320   0.0   0.0
    120. 0.320   0.0   0.0
*PLANTING DETAILS   
   2019169     -99   1.0   1.0     V     R  100.   90.  20.0  450.  -99. -99.0   1.0  25.0
*IRRIGATION         
   1.000    0.    0.    0. GS000 IR001   0.0
*FERTILIZERS        
*RESIDUES           
*CHEMICALS          
*TILLAGE            
*ENVIRONMENT        
*HARVEST            
   2020209 GS016     H     A  100.    0.
*SOIL               
 CBAN840001  XXXX   SACL SL     209. Sandy-Clay Loam EL NUS: CENICAFE/CORPOICA         
 EL NUS COLO MBIA          6.480   3.000 Inceptisols.                                      
 -99    0.13  11.5  0.65   75.  1.00  1.00 -99   -99   -99   -99  
    5.       0.190 0.330 0.430 0.950 0.680  1.36 1.400  31.0  23.0 -99.0 0.140  4.80-99.00  7.50-99.00
   15.       0.190 0.335 0.430 0.820 0.680  1.36 1.205  31.0  23.0 -99.0 0.140  4.80-99.00  7.50-99.00
   20.       0.190 0.320 0.430 0.700 0.680  1.38 1.030  31.0  23.0 -99.0 0.140  4.80-99.00  7.50-99.00
   25.       0.190 0.320 0.430 0.630 0.680  1.40 0.930  31.0  16.0 -99.0 0.060  5.30-99.00  5.80-99.00
   30.       0.190 0.310 0.430 0.580 0.660  1.41 0.850  31.0  16.0 -99.0 0.060  5.30-99.00  5.80-99.00
   35.       0.190 0.330 0.430 0.520 0.520  1.42 0.760  31.0  16.0 -99.0 0.060  5.30-99.00  5.80-99.00
   40.       0.190 0.330 0.430 0.470 0.520  1.43 0.700  31.0  16.0 -99.0 0.060  5.30-99.00  5.80-99.00
   55.       0.190 0.320 0.400 0.330 0.520  1.44 0.500  31.0  16.0 -99.0 0.160  5.30-99.00  5.80-99.00
   70.       0.190 0.320 0.400 0.330 0.520  1.44 0.500  31.0  16.0 -99.0 0.160  5.30-99.00  5.80-99.00
   95.       0.190 0.320 0.400 0.150 0.520  1.48 0.220  31.0  16.0 -99.0 0.100  5.30-99.00  5.80-99.00
  120.       0.190 0.320 0.400 0.150 0.520  1.48 0.220  31.0  16.0 -99.0 0.100  5.30-99.00  5.80-99.00
                    
    5.-99.00 -99.0 -99.0 -99.0 -99.0 -99.0 -99.0 -99.0 -99.0 -99.0-99.00 -99.0 -99.0 -99.0 -99.0 -99.0  -99.
   15.-99.00 -99.0 -99.0 -99.0 -99.0 -99.0 -99.0 -99.0 -99.0 -99.0-99.00 -99.0 -99.0 -99.0 -99.0 -99.0  -99.
   20.-99.00 -99.0 -99.0 -99.0 -99.0 -99.0 -99.0 -99.0 -99.0 -99.0-99.00 -99.0 -99.0 -99.0 -99.0 -99.0  -99.
   25.-99.00 -99.0 -99.0 -99.0 -99.0 -99.0 -99.0 -99.0 -99.0 -99.0-99.00 -99.0 -99.0 -99.0 -99.0 -99.0  -99.
   30.-99.00 -99.0 -99.0 -99.0 -99.0 -99.0 -99.0 -99.0 -99.0 -99.0-99.00 -99.0 -99.0 -99.0 -99.0 -99.0  -99.
   35.-99.00 -99.0 -99.0 -99.0 -99.0 -99.0 -99.0 -99.0 -99.0 -99.0-99.00 -99.0 -99.0 -99.0 -99.0 -99.0  -99.
   40.-99.00 -99.0 -99.0 -99.0 -99.0 -99.0 -99.0 -99.0 -99.0 -99.0-99.00 -99.0 -99.0 -99.0 -99.0 -99.0  -99.
   55.-99.00 -99.0 -99.0 -99.0 -99.0 -99.0 -99.0 -99.0 -99.0 -99.0-99.00 -99.0 -99.0 -99.0 -99.0 -99.0  -99.
   70.-99.00 -99.0 -99.0 -99.0 -99.0 -99.0 -99.0 -99.0 -99.0 -99.0-99.00 -99.0 -99.0 -99.0 -99.0 -99.0  -99.
   95.-99.00 -99.0 -99.0 -99.0 -99.0 -99.0 -99.0 -99.0 -99.0 -99.0-99.00 -99.0 -99.0 -99.0 -99.0 -99.0  -99.
  120.-99.00 -99.0 -99.0 -99.0 -99.0 -99.0 -99.0 -99.0 -99.0 -99.0-99.00 -99.0 -99.0 -99.0 -99.0 -99.0  -99.
                    
    5.-99.00-99.00-99.00-99.00
   15.-99.00-99.00-99.00-99.00
   20.-99.00-99.00-99.00-99.00
   25.-99.00-99.00-99.00-99.00
   30.-99.00-99.00-99.00-99.00
   35.-99.00-99.00-99.00-99.00
   40.-99.00-99.00-99.00-99.00
   55.-99.00-99.00-99.00-99.00
   70.-99.00-99.00-99.00-99.00
   95.-99.00-99.00-99.00-99.00
  120.-99.00-99.00-99.00-99.00
*CULTIVAR           
